Hydcon_L			# MODFLOW hk layer file
ref				# data type/sufix
ib_L				# MODFLOW IBOUND file
inf				# data type/sufix
por_L				# MODFLOW porosity file
ref				# data type/sufix
recharge			# MODFLOW recharge file
ref				# data type/sufix
hk_L				# calibrated MODFLOW hk layer file
valley				# MODFLOW input name
35				# number of wells
0.1				# STD on wells (0.1)
1				# number of river leakage
0.1				# STD on river leakgae in procent (0.1)
model.spc			# model specification file, used by PEST utilities
head_obs_points_L5.ini		# bore coordinat file containing the position of head 
head_pred_points_L5.ini		# bore coordinat file containing the position of predicted head 
zone_int_array.inf		# unformatted integer array file
settings.fig			# pest utility settings file (not writen by HYTEB)
C:\Users\Nikolaj\Dropbox\PH_D\2_MCMC_Burke\Results_joint_11_7_GP003	# folder with  calibrated GWM simulations 
3				# number of hk zone parameters
3				# number of recharge zone parameters
hydro_zones.ini			# parameter zone file, hk & recharge parameter values and zone number
catmode.zns			# integer zone fil
-1				# random noise for each realization
noise_head.ini			# vector with noise components
0				# add predictions to calibration dataset,-1 -> heads and particel tracing, -2 -> head only, -3 -> particle tracing,
10				# number of pred_wells
